%mem=8GB
%nprocshared=6
#n B3LYP/6-31+G(d) Opt Freq

 Title

0 1
O          1.64360        0.19554        0.04483
H          0.99817       -0.09732        0.72623
H          2.54100        0.05749        0.41323
O         -0.78471       -0.41391        1.99831
H         -1.16445        0.14817        1.27048
H         -1.39726       -0.23634        2.73439
O         -2.68919        1.43582       -1.00746
H         -2.06337        2.19785       -1.01133
H         -2.30431        0.80382       -1.66536
O         -0.54582       -0.56477       -3.59665
H          0.22997       -0.28776       -3.07028
H         -0.82105       -1.41327       -3.18490
O         -0.89102       -2.90902       -0.28342
H         -0.88265       -2.23265        0.43375
H         -0.38992       -3.66985        0.04362
O          0.52649        2.62697       -0.72984
H          1.08343        1.85899       -0.45930
H          0.87296        2.92954       -1.58219
O         -3.68255        0.86371        2.10421
H         -4.64945        0.82817        2.11866
H         -3.42376        1.01634        1.17185
O          5.10350        0.02963        0.81632
H          5.72972       -0.41507        0.26387
H          5.51471        0.80483        1.19600
O          1.92207       -3.47018        4.65942
H          2.89207       -3.47018        4.65942
H          1.59874       -4.33290        4.96285
O          3.90843       -0.82926       -4.60857
H          4.87843       -0.82926       -4.60857
H          3.58510       -0.97188       -3.70523

