%chk=H2ODimer.chk
# opt freq b3lyp/6-31+g(d) geom=connectivity

Title Card Required

0 1
 O                  1.52257096   -0.01334000    0.10853800
 H                  1.85481996    0.82289100   -0.25299100
 H                  1.92801796   -0.71191600   -0.42790900
 O                 -1.49993800    0.01534000   -0.12055000
 H                 -1.90147600   -0.09188500    0.75377000
 H                 -0.53454300   -0.03509000    0.02322800

 1 2 1.0 3 1.0
 2
 3
 4 5 1.0 6 1.0
 5
 6

