%chk=H2Otetramer.chk
# opt freq b3lyp/6-31+g(d) geom=connectivity

Title Card Required

0 1
 O                  0.04374598   -2.15238558    0.13277467
 H                  0.84227698   -1.57878958    0.07737367
 H                  0.11009298   -2.78721858   -0.59553333
 O                 -1.41741599    1.37085789   -0.11984994
 H                 -2.07946799    1.63565689    0.53487406
 H                 -1.31464499    0.39448989   -0.04202994
 O                  1.79875627    0.76998806   -0.18313117
 H                  2.33396827    1.18496006    0.50868283
 H                  0.91440627    1.19968206   -0.15441517
 O                 -3.10028343    1.38043035    3.14066634
 H                 -2.14028343    1.38043035    3.14066634
 H                 -3.42073802    2.28536618    3.14066634

 1 2 1.0 3 1.0
 2
 3
 4 5 1.0 6 1.0
 5
 6
 7 8 1.0 9 1.0
 8
 9
 10 11 1.0 12 1.0
 11
 12

