%mem=8GB
%nprocshared=6
%Chk=Heptamer.chk
# opt freq b3lyp/6-31+g(d) geom=connectivity

 Title

0 1
O         -0.75271       -1.00446        1.41579
H         -0.23948       -1.35499        0.64634
H         -0.77199       -1.70353        2.08622
O          0.67001       -1.37422       -0.92883
H          0.19949       -0.55218       -1.29530
H          0.60951       -2.06144       -1.60950
O         -0.57025        0.87513       -1.49476
H         -1.49573        0.72473       -1.19986
H         -0.15532        1.37531       -0.75004
O          0.65840        1.60480        0.90965
H          0.22262        0.89228        1.41221
H          1.56354        1.26392        0.74222
O          2.87049        0.07986        0.04624
H          2.28394       -0.59368       -0.36300
H          3.57372       -0.39693        0.50972
O         -2.88045        0.07164       -0.09035
H         -2.30625       -0.32932        0.59830
H         -3.44792        0.71382        0.36082
O         -0.78060       -0.79129       -4.45781
H          0.18940       -0.79129       -4.45781
H         -1.10393       -0.98423       -3.56387

1 2 1.0 3 1.0
2
3
4 5 1.0 6 1.0
5
6
7 8 1.0 9 1.0
8
9
10 11 1.0 12 1.0
11
12
13 14 1.0 15 1.0
14
15
16 17 1.0 18 1.0
17
18
19 20 1.0 21 1.0
20
21
