%mem=8GB
%nprocshared=6
%chk=Hexamer.chk
# opt freq b3lyp/6-31+g(d) geom=connectivity

Title Card Required

0 1
 O                  0.15841818    2.42899996   -0.29212685
 H                  0.73978118    1.65358896   -0.54501085
 H                  0.02820118    2.94324396   -1.10221285
 O                 -2.12333491    1.01446669    0.98396978
 H                 -2.47118991    1.51565369    1.73611478
 H                 -1.43457491    1.58741769    0.54615378
 O                  1.53894153   -0.12881464   -0.98730672
 H                  2.42599053   -0.28121264   -0.60212272
 H                  0.93443253   -0.79302164   -0.57484972
 O                 -0.46427696   -1.72530844    0.48313606
 H                 -1.23537796   -1.97238044   -0.06742894
 H                 -0.82515496   -0.98493544    1.00826806
 O                 -3.12191442   -1.24958356   -0.56200406
 H                 -2.95197442   -0.38227356   -0.13420906
 H                 -3.45568342   -1.05909056   -1.44996006
 O                  4.18821697   -0.40436771    0.51322542
 H                  4.54799597   -1.29131071    0.35868442
 H                  4.23562297   -0.25865871    1.47056942

 1 2 1.0 3 1.0
 2
 3
 4 5 1.0 6 1.0
 5
 6
 7 8 1.0 9 1.0
 8
 9
 10 11 1.0 12 1.0
 11
 12
 13 14 1.0 15 1.0
 14
 15
 16 17 1.0 18 1.0
 17
 18

