%mem=8GB
%nprocshared=6
%Chk=Octomer.chk
#n B3LYP/6-31+G(d) Opt Freq

 Title

0 1
O         -1.23361        1.40497        1.32864
H         -0.48959        0.79129        1.54694
H         -1.43610        1.90098        2.13583
O          0.87850       -0.34738        1.17106
H          0.45614       -0.61514        0.30834
H          1.16997       -1.20543        1.52928
O         -0.37591       -0.95945       -1.18304
H         -1.32769       -0.93390       -0.92742
H         -0.19793       -0.05750       -1.54879
O          0.06841        1.77370       -1.41812
H         -0.44559        1.99544       -0.62017
H          1.00480        1.86182       -1.13253
O          2.54401        1.47850       -0.12933
H          2.15883        0.80974        0.48194
H          3.08125        2.07958        0.40621
O         -2.87586       -0.39049       -0.08617
H         -2.49734        0.31496        0.48411
H         -3.56316        0.02765       -0.62542
O          1.00513       -3.03422        0.16180
H          1.43560       -3.81120       -0.22207
H          0.56543       -2.56328       -0.57507
O         -0.49690        6.08431       -0.12062
H          0.47310        6.08431       -0.12062
H         -0.82023        6.87119        0.34541

