%mem=8GB
%nprocshared=4
%chk=Pentamer.chk
# opt freq b3lyp/6-31+g(d) geom=connectivity

Title Card Required

0 1
 O                 -0.11679887   -2.75999867   -0.55566170
 H                  0.73058513   -2.24450467   -0.56081370
 H                 -0.07326287   -3.34749267    0.21305930
 O                 -2.54672094    0.11442436    0.20337173
 H                 -3.13589594    0.07342236   -0.56422727
 H                 -2.03231294   -0.73359864    0.20580373
 O                  2.45566574   -0.42506979   -0.35319148
 H                  3.04461074   -0.38233679   -1.12083948
 H                  1.94068874    0.42273921   -0.34908948
 O                  0.22478489    2.44118035    0.30322318
 H                  0.18286089    3.02824535    1.07239218
 H                 -0.62321311    1.92636935    0.29896518
 O                  0.32329403   -0.96023739    3.60896446
 H                 -0.14925354   -0.58631302    4.35627923
 H                  0.28279063   -0.35198389    2.86735327

 1 2 1.0 3 1.0
 2
 3
 4 5 1.0 6 1.0
 5
 6
 7 8 1.0 9 1.0
 8
 9
 10 11 1.0 12 1.0
 11
 12
 13 14 1.0 15 1.0
 14
 15

